Input Parameters:
   integrator                     = md
   tinit                          = 0
   dt                             = 0.002
   nsteps                         = 50000
   init-step                      = 0
   simulation-part                = 1
   comm-mode                      = Linear
   nstcomm                        = 100
   bd-fric                        = 0
   ld-seed                        = -1924586842
   emtol                          = 10
   emstep                         = 0.01
   niter                          = 20
   fcstep                         = 0
   nstcgsteep                     = 1000
   nbfgscorr                      = 10
   rtpi                           = 0.05
   nstxout                        = 0
   nstvout                        = 0
   nstfout                        = 0
   nstlog                         = 500
   nstcalcenergy                  = 100
   nstenergy                      = 500
   nstxout-compressed             = 500
   compressed-x-precision         = 1000
   cutoff-scheme                  = Verlet
   nstlist                        = 10
   ns-type                        = Grid
   pbc                            = xyz
   periodic-molecules             = false
   verlet-buffer-tolerance        = 0.005
   rlist                          = 1
   coulombtype                    = PME
   coulomb-modifier               = Potential-shift
   rcoulomb-switch                = 0
   rcoulomb                       = 1
   epsilon-r                      = 1
   epsilon-rf                     = inf
   vdw-type                       = Cut-off
   vdw-modifier                   = Potential-shift
   rvdw-switch                    = 0
   rvdw                           = 1
   DispCorr                       = EnerPres
   table-extension                = 1
   fourierspacing                 = 0.16
   fourier-nx                     = 44
   fourier-ny                     = 32
   fourier-nz                     = 28
   pme-order                      = 4
   ewald-rtol                     = 1e-05
   ewald-rtol-lj                  = 0.001
   lj-pme-comb-rule               = Geometric
   ewald-geometry                 = 0
   epsilon-surface                = 0
   tcoupl                         = V-rescale
   nsttcouple                     = 10
   nh-chain-length                = 0
   print-nose-hoover-chain-variables = false
   pcoupl                         = Parrinello-Rahman
   pcoupltype                     = Isotropic
   nstpcouple                     = 10
   tau-p                          = 2
   compressibility (3x3):
      compressibility[    0]={ 4.50000e-05,  0.00000e+00,  0.00000e+00}
      compressibility[    1]={ 0.00000e+00,  4.50000e-05,  0.00000e+00}
      compressibility[    2]={ 0.00000e+00,  0.00000e+00,  4.50000e-05}
   ref-p (3x3):
      ref-p[    0]={ 1.00000e+00,  0.00000e+00,  0.00000e+00}
      ref-p[    1]={ 0.00000e+00,  1.00000e+00,  0.00000e+00}
      ref-p[    2]={ 0.00000e+00,  0.00000e+00,  1.00000e+00}
   refcoord-scaling               = No
   posres-com (3):
      posres-com[0]= 0.00000e+00
      posres-com[1]= 0.00000e+00
      posres-com[2]= 0.00000e+00
   posres-comB (3):
      posres-comB[0]= 0.00000e+00
      posres-comB[1]= 0.00000e+00
      posres-comB[2]= 0.00000e+00
   QMMM                           = false
   QMconstraints                  = 0
   QMMMscheme                     = 0
   MMChargeScaleFactor            = 1
qm-opts:
   ngQM                           = 0
   constraint-algorithm           = Lincs
   continuation                   = true
   Shake-SOR                      = false
   shake-tol                      = 0.0001
   lincs-order                    = 4
   lincs-iter                     = 1
   lincs-warnangle                = 30
   nwall                          = 0
   wall-type                      = 9-3
   wall-r-linpot                  = -1
   wall-atomtype[0]               = -1
   wall-atomtype[1]               = -1
   wall-density[0]                = 0
   wall-density[1]                = 0
   wall-ewald-zfac                = 3
   pull                           = false
   awh                            = false
   rotation                       = false
   interactiveMD                  = false
   disre                          = No
   disre-weighting                = Conservative
   disre-mixed                    = false
   dr-fc                          = 1000
   dr-tau                         = 0
   nstdisreout                    = 100
   orire-fc                       = 0
   orire-tau                      = 0
   nstorireout                    = 100
   free-energy                    = no
   cos-acceleration               = 0
   deform (3x3):
      deform[    0]={ 0.00000e+00,  0.00000e+00,  0.00000e+00}
      deform[    1]={ 0.00000e+00,  0.00000e+00,  0.00000e+00}
      deform[    2]={ 0.00000e+00,  0.00000e+00,  0.00000e+00}
   simulated-tempering            = false
   swapcoords                     = no
   userint1                       = 0
   userint2                       = 0
   userint3                       = 0
   userint4                       = 0
   userreal1                      = 0
   userreal2                      = 0
   userreal3                      = 0
   userreal4                      = 0
   applied-forces:
     electric-field:
       x:
         E0                       = 0
         omega                    = 0
         t0                       = 0
         sigma                    = 0
       y:
         E0                       = 0
         omega                    = 0
         t0                       = 0
         sigma                    = 0
       z:
         E0                       = 0
         omega                    = 0
         t0                       = 0
         sigma                    = 0
grpopts:
   nrdf:     884.913     29496.1
   ref-t:         300         300
   tau-t:         0.1         0.1
annealing:          No          No
annealing-npoints:           0           0
   acc:	           0           0           0
   nfreeze:           N           N           N
   energygrp-flags[  0]: 0

Changing nstlist from 10 to 50, rlist from 1 to 1.111

Initializing Domain Decomposition on 2 ranks
Dynamic load balancing: off
Using update groups, nr 5107, average size 3.0 atoms, max. radius 0.139 nm
Minimum cell size due to atom displacement: 0.390 nm
Initial maximum distances in bonded interactions:
    two-body bonded interactions: 0.423 nm, LJ-14, atoms 130 137
  multi-body bonded interactions: 0.474 nm, CMAP Dih., atoms 299 316
Minimum cell size due to bonded interactions: 0.521 nm
Using 0 separate PME ranks, as there are too few total
 ranks for efficient splitting
To account for pressure scaling, scaling the initial minimum size with 1.05
Optimizing the DD grid for 2 cells with a minimum initial size of 0.547 nm
The maximum allowed number of cells is: X 12 Y 8 Z 8
Domain decomposition grid 2 x 1 x 1, separate PME ranks 0
PME domain decomposition: 2 x 1 x 1
Domain decomposition rank 0, coordinates 0 0 0

The initial number of communication pulses is: X 1
The initial domain decomposition cell size is: X 3.45 nm

The maximum allowed distance for atom groups involved in interactions is:
                 non-bonded interactions           1.389 nm
(the following are initial values, they could change due to box deformation)
            two-body bonded interactions  (-rdd)   1.389 nm
          multi-body bonded interactions  (-rdd)   1.389 nm

This is simulation 2 out of 5 running as a composite GROMACS
multi-simulation job. Setup for this simulation:

Using 2 MPI processes
Using 1 OpenMP thread per MPI process

Non-default thread affinity set probably by the OpenMP library,
disabling internal thread affinity
System total charge: 0.083
Will do PME sum in reciprocal space for electrostatic interactions.

Using a Gaussian width (1/beta) of 0.320163 nm for Ewald
Potential shift: LJ r^-12: -1.000e+00 r^-6: -1.000e+00, Ewald -1.000e-05
Initialized non-bonded Ewald correction tables, spacing: 9.33e-04 size: 1073

Long Range LJ corr.: <C6> 3.0619e-04
Generated table with 1055 data points for Ewald.
Tabscale = 500 points/nm
Generated table with 1055 data points for LJ6.
Tabscale = 500 points/nm
Generated table with 1055 data points for LJ12.
Tabscale = 500 points/nm
Generated table with 1055 data points for 1-4 COUL.
Tabscale = 500 points/nm
Generated table with 1055 data points for 1-4 LJ6.
Tabscale = 500 points/nm
Generated table with 1055 data points for 1-4 LJ12.
Tabscale = 500 points/nm

Using SIMD 4x8 nonbonded short-range kernels

Using a dual 4x8 pair-list setup updated with dynamic pruning:
  outer list: updated every 50 steps, buffer 0.111 nm, rlist 1.111 nm
  inner list: updated every 12 steps, buffer 0.003 nm, rlist 1.003 nm
At tolerance 0.005 kJ/mol/ps per atom, equivalent classical 1x1 list would be:
  outer list: updated every 50 steps, buffer 0.236 nm, rlist 1.236 nm
  inner list: updated every 12 steps, buffer 0.048 nm, rlist 1.048 nm

Using full Lennard-Jones parameter combination matrix

Initializing LINear Constraint Solver

The number of constraints is 177

Linking all bonded interactions to atoms

Intra-simulation communication will occur every 10 steps.
Center of mass motion removal mode is Linear
We have the following groups for center of mass motion removal:
  0:  rest

There are: 15090 Atoms
Atom distribution over 2 domains: av 7545 stddev 33 min 7512 max 7578

Initializing Replica Exchange
Repl  There are 5 replicas:
Multi-checking the number of atoms ... OK
Multi-checking the integrator ... OK
Multi-checking init_step+nsteps ... OK
Multi-checking first exchange step: init_step/-replex ... OK
Multi-checking the temperature coupling ... OK
Multi-checking the number of temperature coupling groups ... OK
Multi-checking the pressure coupling ... OK
Multi-checking free energy ... OK
Multi-checking number of lambda states ... OK

Repl  Using Constant Pressure REMD.

Replica exchange in temperature
 300.0 300.0 300.0 300.0 300.0

Repl  p  1.00  1.00  1.00  1.00  1.00
Replica exchange interval: 100

Replica random seed: -1019287979
Replica exchange information below: ex and x = exchange, pr = probability

PLUMED: PLUMED is starting
PLUMED: Version: 2.5.5 (git: Unknown) compiled on Sep 20 2022 at 13:34:04
PLUMED: Please cite these papers when using PLUMED [1][2]
PLUMED: For further information see the PLUMED web page at http://www.plumed.org
PLUMED: Root: /home/lovelace/proj/proj864/pamellac/Downloads/curso/plumed2/lib/plumed
PLUMED: For installed feature, see /home/lovelace/proj/proj864/pamellac/Downloads/curso/plumed2/lib/plumed/src/config/config.txt
PLUMED: Molecular dynamics engine: gromacs
PLUMED: Precision of reals: 4
PLUMED: Running over 2 nodes
PLUMED: Number of threads: 1
PLUMED: Cache line size: 512
PLUMED: Number of atoms: 15090
PLUMED: GROMACS-like replica exchange is on
PLUMED: File suffix: .2
PLUMED: FILE: plumed.dat
PLUMED: END FILE: plumed.dat
PLUMED: Timestep: 0.002000
PLUMED: KbT: 2.494339
PLUMED: Relevant bibliography:
PLUMED:   [1] The PLUMED consortium, Nat. Methods 16, 670 (2019)
PLUMED:   [2] Tribello, Bonomi, Branduardi, Camilloni, and Bussi, Comput. Phys. Commun. 185, 604 (2014)
PLUMED: Please read and cite where appropriate!
PLUMED: Finished setup
Started mdrun on rank 0 Mon Mar  4 13:33:28 2024

           Step           Time
              0        0.00000

   Energies (kJ/mol)
           Bond            U-B    Proper Dih.  Improper Dih.      CMAP Dih.
    2.39577e+02    7.46100e+02    8.32952e+02    4.61762e+01   -8.54536e+01
          LJ-14     Coulomb-14        LJ (SR)  Disper. corr.   Coulomb (SR)
    2.56867e+02    4.04552e+03    2.34319e+04   -1.96793e+03   -2.44030e+05
    1.33541e+03   -2.15149e+05    3.80025e+04   -1.77147e+05   -1.77138e+05
    Temperature Pres. DC (bar) Pressure (bar)   Constr. rmsd
    3.00888e+02   -2.20716e+02    1.91282e+02    2.53946e-06

	<====  A V E R A G E S  ====>

	Statistics over 50001 steps using 501 frames

   Energies (kJ/mol)
           Bond            U-B    Proper Dih.  Improper Dih.      CMAP Dih.
    2.59306e+02    7.89563e+02    8.69386e+02    5.16598e+01   -8.98687e+01
          LJ-14     Coulomb-14        LJ (SR)  Disper. corr.   Coulomb (SR)
    2.42669e+02    4.03188e+03    2.29272e+04   -1.97120e+03   -2.43732e+05
   Coul. recip.      Potential    Kinetic En.   Total Energy  Conserved En.
    1.31599e+03   -2.15305e+05    3.79103e+04   -1.77395e+05   -1.76809e+05
    Temperature Pres. DC (bar) Pressure (bar)   Constr. rmsd
    3.00159e+02   -2.21452e+02   -1.60969e+00    0.00000e+00

          Box-X          Box-Y          Box-Z
    6.89951e+00    4.81730e+00    4.45243e+00

   Total Virial (kJ/mol)
    1.26412e+04    3.55764e-01   -6.93843e+01
    1.03290e+00    1.26460e+04   -4.50265e+00
   -6.88176e+01   -4.51242e+00    1.26492e+04

   Pressure (bar)
   -3.32444e-03    7.90603e-02    1.80347e+01
   -7.27557e-02   -2.24563e+00    3.83663e-01
    1.79076e+01    3.85947e-01   -2.58015e+00

      T-Protein  T-non-Protein
    3.00050e+02    3.00162e+02

Replica exchange statistics
Repl  499 attempts, 250 odd, 249 even
Repl  average probabilities:
Repl     0    1    2    3    4
Repl      .12  .07  .10  .14
Repl  number of exchanges:
Repl     0    1    2    3    4
Repl       24   18   26   31
Repl  average number of exchanges:
Repl     0    1    2    3    4
Repl      .10  .07  .10  .12

Repl                    Empirical Transition Matrix
Repl       1       2       3       4       5
Repl  0.9519  0.0481  0.0000  0.0000  0.0000  0
Repl  0.0481  0.9158  0.0361  0.0000  0.0000  1
Repl  0.0000  0.0361  0.9118  0.0521  0.0000  2
Repl  0.0000  0.0000  0.0521  0.8858  0.0621  3
Repl  0.0000  0.0000  0.0000  0.0621  0.9379  4
