Input Parameters:
   integrator                     = md
   tinit                          = 0
   dt                             = 0.002
   nsteps                         = 50000
   init-step                      = 0
   simulation-part                = 1
   comm-mode                      = Linear
   nstcomm                        = 100
   bd-fric                        = 0
   ld-seed                        = 1237416768
   emtol                          = 10
   emstep                         = 0.01
   niter                          = 20
   fcstep                         = 0
   nstcgsteep                     = 1000
   nbfgscorr                      = 10
   rtpi                           = 0.05
   nstxout                        = 0
   nstvout                        = 0
   nstfout                        = 0
   nstlog                         = 500
   nstcalcenergy                  = 100
   nstenergy                      = 500
   nstxout-compressed             = 500
   compressed-x-precision         = 1000
   cutoff-scheme                  = Verlet
   nstlist                        = 10
   ns-type                        = Grid
   pbc                            = xyz
   periodic-molecules             = false
   verlet-buffer-tolerance        = 0.005
   rlist                          = 1
   coulombtype                    = PME
   coulomb-modifier               = Potential-shift
   rcoulomb-switch                = 0
   rcoulomb                       = 1
   epsilon-r                      = 1
   epsilon-rf                     = inf
   vdw-type                       = Cut-off
   vdw-modifier                   = Potential-shift
   rvdw-switch                    = 0
   rvdw                           = 1
   DispCorr                       = EnerPres
   table-extension                = 1
   fourierspacing                 = 0.16
   fourier-nx                     = 44
   fourier-ny                     = 32
   fourier-nz                     = 28
   pme-order                      = 4
   ewald-rtol                     = 1e-05
   ewald-rtol-lj                  = 0.001
   lj-pme-comb-rule               = Geometric
   ewald-geometry                 = 0
   epsilon-surface                = 0
   tcoupl                         = V-rescale
   nsttcouple                     = 10
   nh-chain-length                = 0
   print-nose-hoover-chain-variables = false
   pcoupl                         = Parrinello-Rahman
   pcoupltype                     = Isotropic
   nstpcouple                     = 10
   tau-p                          = 2
   compressibility (3x3):
      compressibility[    0]={ 4.50000e-05,  0.00000e+00,  0.00000e+00}
      compressibility[    1]={ 0.00000e+00,  4.50000e-05,  0.00000e+00}
      compressibility[    2]={ 0.00000e+00,  0.00000e+00,  4.50000e-05}
   ref-p (3x3):
      ref-p[    0]={ 1.00000e+00,  0.00000e+00,  0.00000e+00}
      ref-p[    1]={ 0.00000e+00,  1.00000e+00,  0.00000e+00}
      ref-p[    2]={ 0.00000e+00,  0.00000e+00,  1.00000e+00}
   refcoord-scaling               = No
   posres-com (3):
      posres-com[0]= 0.00000e+00
      posres-com[1]= 0.00000e+00
      posres-com[2]= 0.00000e+00
   posres-comB (3):
      posres-comB[0]= 0.00000e+00
      posres-comB[1]= 0.00000e+00
      posres-comB[2]= 0.00000e+00
   QMMM                           = false
   QMconstraints                  = 0
   QMMMscheme                     = 0
   MMChargeScaleFactor            = 1
qm-opts:
   ngQM                           = 0
   constraint-algorithm           = Lincs
   continuation                   = true
   Shake-SOR                      = false
   shake-tol                      = 0.0001
   lincs-order                    = 4
   lincs-iter                     = 1
   lincs-warnangle                = 30
   nwall                          = 0
   wall-type                      = 9-3
   wall-r-linpot                  = -1
   wall-atomtype[0]               = -1
   wall-atomtype[1]               = -1
   wall-density[0]                = 0
   wall-density[1]                = 0
   wall-ewald-zfac                = 3
   pull                           = false
   awh                            = false
   rotation                       = false
   interactiveMD                  = false
   disre                          = No
   disre-weighting                = Conservative
   disre-mixed                    = false
   dr-fc                          = 1000
   dr-tau                         = 0
   nstdisreout                    = 100
   orire-fc                       = 0
   orire-tau                      = 0
   nstorireout                    = 100
   free-energy                    = no
   cos-acceleration               = 0
   deform (3x3):
      deform[    0]={ 0.00000e+00,  0.00000e+00,  0.00000e+00}
      deform[    1]={ 0.00000e+00,  0.00000e+00,  0.00000e+00}
      deform[    2]={ 0.00000e+00,  0.00000e+00,  0.00000e+00}
   simulated-tempering            = false
   swapcoords                     = no
   userint1                       = 0
   userint2                       = 0
   userint3                       = 0
   userint4                       = 0
   userreal1                      = 0
   userreal2                      = 0
   userreal3                      = 0
   userreal4                      = 0
   applied-forces:
     electric-field:
       x:
         E0                       = 0
         omega                    = 0
         t0                       = 0
         sigma                    = 0
       y:
         E0                       = 0
         omega                    = 0
         t0                       = 0
         sigma                    = 0
       z:
         E0                       = 0
         omega                    = 0
         t0                       = 0
         sigma                    = 0
grpopts:
   nrdf:     884.913     29496.1
   ref-t:         300         300
   tau-t:         0.1         0.1
annealing:          No          No
annealing-npoints:           0           0
   acc:	           0           0           0
   nfreeze:           N           N           N
   energygrp-flags[  0]: 0

Changing nstlist from 10 to 50, rlist from 1 to 1.111

Initializing Domain Decomposition on 2 ranks
Dynamic load balancing: off
Using update groups, nr 5107, average size 3.0 atoms, max. radius 0.139 nm
Minimum cell size due to atom displacement: 0.390 nm
Initial maximum distances in bonded interactions:
    two-body bonded interactions: 0.406 nm, LJ-14, atoms 272 281
  multi-body bonded interactions: 0.433 nm, CMAP Dih., atoms 288 301
Minimum cell size due to bonded interactions: 0.476 nm
Using 0 separate PME ranks, as there are too few total
 ranks for efficient splitting
To account for pressure scaling, scaling the initial minimum size with 1.05
Optimizing the DD grid for 2 cells with a minimum initial size of 0.500 nm
The maximum allowed number of cells is: X 13 Y 9 Z 8
Domain decomposition grid 2 x 1 x 1, separate PME ranks 0
PME domain decomposition: 2 x 1 x 1
Domain decomposition rank 0, coordinates 0 0 0

The initial number of communication pulses is: X 1
The initial domain decomposition cell size is: X 3.44 nm

The maximum allowed distance for atom groups involved in interactions is:
                 non-bonded interactions           1.389 nm
(the following are initial values, they could change due to box deformation)
            two-body bonded interactions  (-rdd)   1.389 nm
          multi-body bonded interactions  (-rdd)   1.389 nm

This is simulation 4 out of 5 running as a composite GROMACS
multi-simulation job. Setup for this simulation:

Using 2 MPI processes
Using 1 OpenMP thread per MPI process

Non-default thread affinity set probably by the OpenMP library,
disabling internal thread affinity
System total charge: 0.157
Will do PME sum in reciprocal space for electrostatic interactions.

Using a Gaussian width (1/beta) of 0.320163 nm for Ewald
Potential shift: LJ r^-12: -1.000e+00 r^-6: -1.000e+00, Ewald -1.000e-05
Initialized non-bonded Ewald correction tables, spacing: 9.33e-04 size: 1073

Long Range LJ corr.: <C6> 3.0446e-04
Generated table with 1055 data points for Ewald.
Tabscale = 500 points/nm
Generated table with 1055 data points for LJ6.
Tabscale = 500 points/nm
Generated table with 1055 data points for LJ12.
Tabscale = 500 points/nm
Generated table with 1055 data points for 1-4 COUL.
Tabscale = 500 points/nm
Generated table with 1055 data points for 1-4 LJ6.
Tabscale = 500 points/nm
Generated table with 1055 data points for 1-4 LJ12.
Tabscale = 500 points/nm

Using SIMD 4x8 nonbonded short-range kernels

Using a dual 4x8 pair-list setup updated with dynamic pruning:
  outer list: updated every 50 steps, buffer 0.111 nm, rlist 1.111 nm
  inner list: updated every 12 steps, buffer 0.003 nm, rlist 1.003 nm
At tolerance 0.005 kJ/mol/ps per atom, equivalent classical 1x1 list would be:
  outer list: updated every 50 steps, buffer 0.237 nm, rlist 1.237 nm
  inner list: updated every 12 steps, buffer 0.048 nm, rlist 1.048 nm

Using full Lennard-Jones parameter combination matrix

Initializing LINear Constraint Solver

The number of constraints is 177

Linking all bonded interactions to atoms

Intra-simulation communication will occur every 10 steps.
Center of mass motion removal mode is Linear
We have the following groups for center of mass motion removal:
  0:  rest

There are: 15090 Atoms
Atom distribution over 2 domains: av 7545 stddev 53 min 7492 max 7598

Initializing Replica Exchange
Repl  There are 5 replicas:
Multi-checking the number of atoms ... OK
Multi-checking the integrator ... OK
Multi-checking init_step+nsteps ... OK
Multi-checking first exchange step: init_step/-replex ... OK
Multi-checking the temperature coupling ... OK
Multi-checking the number of temperature coupling groups ... OK
Multi-checking the pressure coupling ... OK
Multi-checking free energy ... OK
Multi-checking number of lambda states ... OK

Repl  Using Constant Pressure REMD.

Replica exchange in temperature
 300.0 300.0 300.0 300.0 300.0

Repl  p  1.00  1.00  1.00  1.00  1.00
Replica exchange interval: 100

Replica random seed: -1019287979
Replica exchange information below: ex and x = exchange, pr = probability

PLUMED: PLUMED is starting
PLUMED: Version: 2.5.5 (git: Unknown) compiled on Sep 20 2022 at 13:34:04
PLUMED: Please cite these papers when using PLUMED [1][2]
PLUMED: For further information see the PLUMED web page at http://www.plumed.org
PLUMED: Root: /home/lovelace/proj/proj864/pamellac/Downloads/curso/plumed2/lib/plumed
PLUMED: For installed feature, see /home/lovelace/proj/proj864/pamellac/Downloads/curso/plumed2/lib/plumed/src/config/config.txt
PLUMED: Molecular dynamics engine: gromacs
PLUMED: Precision of reals: 4
PLUMED: Running over 2 nodes
PLUMED: Number of threads: 1
PLUMED: Cache line size: 512
PLUMED: Number of atoms: 15090
PLUMED: GROMACS-like replica exchange is on
PLUMED: File suffix: .4
PLUMED: FILE: plumed.dat
PLUMED: END FILE: plumed.dat
PLUMED: Timestep: 0.002000
PLUMED: KbT: 2.494339
PLUMED: Relevant bibliography:
PLUMED:   [1] The PLUMED consortium, Nat. Methods 16, 670 (2019)
PLUMED:   [2] Tribello, Bonomi, Branduardi, Camilloni, and Bussi, Comput. Phys. Commun. 185, 604 (2014)
PLUMED: Please read and cite where appropriate!
PLUMED: Finished setup
Started mdrun on rank 0 Mon Mar  4 13:33:28 2024

           Step           Time
              0        0.00000

   Energies (kJ/mol)
           Bond            U-B    Proper Dih.  Improper Dih.      CMAP Dih.
    2.18868e+02    8.72226e+02    7.54756e+02    5.10915e+01   -1.37473e+02
          LJ-14     Coulomb-14        LJ (SR)  Disper. corr.   Coulomb (SR)
    2.21555e+02    3.35634e+03    2.40289e+04   -1.97533e+03   -2.43212e+05
    1.33104e+03   -2.14490e+05    3.78870e+04   -1.76603e+05   -1.76594e+05
    Temperature Pres. DC (bar) Pressure (bar)   Constr. rmsd
    2.99974e+02   -2.23638e+02    5.54443e+02    2.30897e-06

	<====  A V E R A G E S  ====>

	Statistics over 50001 steps using 501 frames

   Energies (kJ/mol)
           Bond            U-B    Proper Dih.  Improper Dih.      CMAP Dih.
    2.47674e+02    7.52817e+02    7.70266e+02    5.07056e+01   -1.19210e+02
          LJ-14     Coulomb-14        LJ (SR)  Disper. corr.   Coulomb (SR)
    2.20236e+02    3.43086e+03    2.30120e+04   -1.96133e+03   -2.42562e+05
   Coul. recip.      Potential    Kinetic En.   Total Energy  Conserved En.
    1.31149e+03   -2.14846e+05    3.78882e+04   -1.76958e+05   -1.76351e+05
    Temperature Pres. DC (bar) Pressure (bar)   Constr. rmsd
    2.99983e+02   -2.20487e+02    5.92102e+00    0.00000e+00

          Box-X          Box-Y          Box-Z
    6.89802e+00    4.81626e+00    4.45146e+00

   Total Virial (kJ/mol)
    1.26059e+04   -6.06048e+01   -2.30532e+01
   -6.04503e+01    1.25384e+04   -9.17558e+00
   -2.26155e+01   -9.02899e+00    1.26686e+04

   Pressure (bar)
    5.27198e+00    1.15014e+01    5.71124e+00
    1.14667e+01    2.34674e+01    1.78923e+00
    5.61302e+00    1.75628e+00   -1.09764e+01

      T-Protein  T-non-Protein
    2.99802e+02    2.99989e+02

Replica exchange statistics
Repl  499 attempts, 250 odd, 249 even
Repl  average probabilities:
Repl     0    1    2    3    4
Repl      .12  .07  .10  .14
Repl  number of exchanges:
Repl     0    1    2    3    4
Repl       24   18   26   31
Repl  average number of exchanges:
Repl     0    1    2    3    4
Repl      .10  .07  .10  .12

Repl                    Empirical Transition Matrix
Repl       1       2       3       4       5
Repl  0.9519  0.0481  0.0000  0.0000  0.0000  0
Repl  0.0481  0.9158  0.0361  0.0000  0.0000  1
Repl  0.0000  0.0361  0.9118  0.0521  0.0000  2
Repl  0.0000  0.0000  0.0521  0.8858  0.0621  3
Repl  0.0000  0.0000  0.0000  0.0621  0.9379  4
